  
       XFOIL         Version 6.99
  
 Calculated polar for: CLARK Y AIRFOIL                                 
  
 1 1 Reynolds number fixed          Mach number fixed         
  
 xtrf =   1.000 (top)        1.000 (bottom)  
 Mach =   0.000     Re =     5.000 e 6     Ncrit =   9.000
  
   alpha    CL        CD       CDp       CM     Top_Xtr  Bot_Xtr
  ------ -------- --------- --------- -------- -------- --------
  -5.400  -0.2143   0.00674   0.00207  -0.0827   0.7284   0.0243
  -5.200  -0.1916   0.00668   0.00199  -0.0827   0.7207   0.0245
  -5.000  -0.1689   0.00664   0.00192  -0.0827   0.7125   0.0246
  -4.800  -0.1465   0.00653   0.00179  -0.0827   0.7047   0.0250
  -4.600  -0.1239   0.00646   0.00169  -0.0827   0.6970   0.0255
  -4.400  -0.1012   0.00640   0.00162  -0.0827   0.6886   0.0259
  -4.200  -0.0786   0.00636   0.00155  -0.0827   0.6796   0.0262
  -4.000  -0.0560   0.00632   0.00149  -0.0827   0.6702   0.0265
  -3.800  -0.0332   0.00629   0.00143  -0.0828   0.6620   0.0269
  -3.600  -0.0104   0.00625   0.00137  -0.0828   0.6549   0.0272
  -3.400   0.0124   0.00622   0.00132  -0.0828   0.6473   0.0273
  -3.200   0.0350   0.00615   0.00123  -0.0829   0.6400   0.0282
  -3.000   0.0578   0.00611   0.00118  -0.0829   0.6323   0.0288
  -2.800   0.0806   0.00608   0.00113  -0.0829   0.6243   0.0292
  -2.600   0.1033   0.00606   0.00109  -0.0830   0.6159   0.0298
  -2.400   0.1260   0.00604   0.00105  -0.0830   0.6070   0.0301
  -2.200   0.1488   0.00602   0.00100  -0.0830   0.5984   0.0307
  -2.000   0.1714   0.00599   0.00096  -0.0830   0.5893   0.0319
  -1.800   0.1940   0.00598   0.00093  -0.0831   0.5796   0.0327
  -1.600   0.2167   0.00598   0.00090  -0.0831   0.5706   0.0335
  -1.400   0.2393   0.00597   0.00087  -0.0831   0.5607   0.0354
  -1.200   0.2619   0.00595   0.00084  -0.0831   0.5514   0.0388
  -1.000   0.2840   0.00585   0.00080  -0.0831   0.5419   0.0635
  -0.800   0.3064   0.00583   0.00079  -0.0831   0.5319   0.0767
  -0.400   0.3513   0.00581   0.00078  -0.0831   0.5112   0.0997
  -0.200   0.3735   0.00577   0.00077  -0.0831   0.5005   0.1229
  -0.000   0.3957   0.00573   0.00077  -0.0830   0.4897   0.1522
   0.200   0.4177   0.00569   0.00078  -0.0830   0.4780   0.1834
   0.400   0.4398   0.00568   0.00079  -0.0830   0.4650   0.2132
   0.600   0.4618   0.00568   0.00082  -0.0829   0.4513   0.2383
   0.800   0.4837   0.00571   0.00085  -0.0829   0.4358   0.2619
   1.000   0.5055   0.00576   0.00089  -0.0828   0.4175   0.2842
   1.200   0.5269   0.00583   0.00094  -0.0826   0.3965   0.3110
   1.400   0.5483   0.00589   0.00099  -0.0825   0.3766   0.3411
   1.600   0.5697   0.00594   0.00105  -0.0824   0.3584   0.3761
   1.800   0.5908   0.00593   0.00111  -0.0822   0.3416   0.4389
   2.000   0.6120   0.00588   0.00117  -0.0821   0.3282   0.5083
   2.200   0.6332   0.00583   0.00124  -0.0820   0.3166   0.5806
   2.800   0.6961   0.00546   0.00143  -0.0813   0.2965   0.8419
   3.000   0.7170   0.00543   0.00150  -0.0810   0.2906   0.8866
   3.200   0.7370   0.00540   0.00156  -0.0804   0.2857   0.9314
   3.400   0.7561   0.00541   0.00163  -0.0796   0.2810   0.9656
   3.600   0.7782   0.00547   0.00169  -0.0795   0.2762   0.9791
   3.800   0.8029   0.00553   0.00174  -0.0800   0.2726   0.9867
   4.000   0.8279   0.00562   0.00180  -0.0806   0.2678   0.9916
   4.200   0.8542   0.00569   0.00185  -0.0815   0.2638   0.9947
   4.400   0.8796   0.00579   0.00192  -0.0823   0.2590   0.9971
   4.600   0.9064   0.00588   0.00198  -0.0833   0.2537   0.9981
   4.800   0.9334   0.00597   0.00205  -0.0845   0.2482   0.9994
   5.000   0.9567   0.00611   0.00214  -0.0848   0.2382   1.0000
   5.200   0.9760   0.00625   0.00223  -0.0842   0.2283   1.0000
   5.400   0.9956   0.00639   0.00232  -0.0836   0.2188   1.0000
   5.600   1.0149   0.00656   0.00243  -0.0831   0.2067   1.0000
   5.800   1.0330   0.00684   0.00260  -0.0823   0.1847   1.0000
   6.000   1.0510   0.00715   0.00280  -0.0816   0.1624   1.0000
   6.200   1.0697   0.00743   0.00298  -0.0809   0.1444   1.0000
   6.400   1.0886   0.00770   0.00317  -0.0804   0.1280   1.0000
   6.600   1.1077   0.00797   0.00335  -0.0799   0.1132   1.0000
   6.800   1.1268   0.00824   0.00354  -0.0794   0.0997   1.0000
   7.000   1.1463   0.00849   0.00373  -0.0789   0.0893   1.0000
   7.200   1.1662   0.00870   0.00389  -0.0786   0.0819   1.0000
   7.400   1.1862   0.00890   0.00406  -0.0782   0.0758   1.0000
   7.600   1.2061   0.00910   0.00422  -0.0779   0.0701   1.0000
   7.800   1.2259   0.00931   0.00440  -0.0775   0.0645   1.0000
   8.000   1.2455   0.00954   0.00458  -0.0771   0.0581   1.0000
   8.200   1.2642   0.00984   0.00482  -0.0766   0.0497   1.0000
   8.400   1.2814   0.01025   0.00514  -0.0758   0.0369   1.0000
   8.600   1.2943   0.01099   0.00575  -0.0743   0.0138   1.0000
   8.800   1.3134   0.01124   0.00598  -0.0739   0.0122   1.0000
   9.000   1.3324   0.01147   0.00621  -0.0734   0.0111   1.0000
   9.200   1.3516   0.01169   0.00642  -0.0730   0.0104   1.0000
   9.400   1.3704   0.01193   0.00665  -0.0725   0.0097   1.0000
   9.600   1.3893   0.01215   0.00687  -0.0720   0.0092   1.0000
   9.800   1.4077   0.01239   0.00711  -0.0715   0.0086   1.0000
  10.000   1.4262   0.01262   0.00734  -0.0710   0.0083   1.0000
  10.200   1.4444   0.01287   0.00758  -0.0704   0.0079   1.0000
  10.400   1.4621   0.01314   0.00784  -0.0698   0.0074   1.0000
  10.600   1.4799   0.01338   0.00809  -0.0692   0.0072   1.0000
  10.800   1.4974   0.01364   0.00835  -0.0685   0.0069   1.0000
  11.000   1.5143   0.01392   0.00863  -0.0677   0.0066   1.0000
  11.200   1.5300   0.01422   0.00893  -0.0668   0.0063   1.0000
  11.400   1.5454   0.01448   0.00920  -0.0657   0.0061   1.0000
  11.600   1.5601   0.01477   0.00949  -0.0646   0.0059   1.0000
  11.800   1.5744   0.01508   0.00981  -0.0634   0.0057   1.0000
  12.000   1.5880   0.01543   0.01017  -0.0621   0.0055   1.0000
  12.200   1.6014   0.01580   0.01054  -0.0609   0.0053   1.0000
  12.400   1.6152   0.01614   0.01090  -0.0597   0.0052   1.0000
  12.600   1.6285   0.01651   0.01128  -0.0585   0.0051   1.0000
  12.800   1.6414   0.01691   0.01169  -0.0573   0.0050   1.0000
  13.000   1.6539   0.01734   0.01213  -0.0560   0.0048   1.0000
  13.200   1.6657   0.01781   0.01262  -0.0547   0.0047   1.0000
  13.400   1.6766   0.01836   0.01318  -0.0533   0.0045   1.0000
  13.600   1.6886   0.01884   0.01368  -0.0522   0.0044   1.0000
  13.800   1.7003   0.01935   0.01421  -0.0510   0.0044   1.0000
  14.000   1.7115   0.01989   0.01477  -0.0498   0.0043   1.0000
  14.200   1.7222   0.02049   0.01539  -0.0486   0.0042   1.0000
  14.400   1.7324   0.02113   0.01605  -0.0474   0.0041   1.0000
  14.600   1.7421   0.02182   0.01676  -0.0462   0.0040   1.0000
  14.800   1.7510   0.02258   0.01754  -0.0450   0.0039   1.0000
  15.000   1.7588   0.02344   0.01843  -0.0437   0.0038   1.0000
  15.200   1.7669   0.02430   0.01932  -0.0425   0.0037   1.0000
  15.400   1.7756   0.02514   0.02018  -0.0415   0.0037   1.0000
  15.600   1.7839   0.02603   0.02110  -0.0404   0.0036   1.0000
  15.800   1.7914   0.02699   0.02209  -0.0394   0.0036   1.0000
  16.000   1.7986   0.02802   0.02314  -0.0384   0.0035   1.0000
