  
       XFOIL         Version 6.99
  
 Calculated polar for: NACA 4412                                       
  
 1 1 Reynolds number fixed          Mach number fixed         
  
 xtrf =   1.000 (top)        1.000 (bottom)  
 Mach =   0.000     Re =     0.050 e 6     Ncrit =   9.000  9.000
  
   alpha    CL        CD       CDp       CM     Top_Xtr  Bot_Xtr  Top_Itr  Bot_Itr
  ------ -------- --------- --------- -------- -------- -------- -------- --------
 -10.000  -0.3357   0.12564   0.11133  -0.0342   1.0000   0.2051   1.0000 111.9390
  -9.750  -0.3235   0.12087   0.10793  -0.0335   1.0000   0.2095   1.0000 112.2017
  -9.500  -0.3157   0.11781   0.10501  -0.0327   1.0000   0.2167   1.0000 112.6370
  -9.250  -0.3389   0.11830   0.10387  -0.0331   1.0000   0.2221   1.0000 112.9580
  -9.000  -0.3207   0.11297   0.10027  -0.0319   1.0000   0.2269   1.0000 113.2461
  -8.750  -0.3193   0.11066   0.09787  -0.0308   1.0000   0.2353   1.0000 113.7427
  -8.500  -0.3532   0.11186   0.09745  -0.0301   1.0000   0.2392   1.0000 113.9781
  -8.250  -0.3210   0.10569   0.09337  -0.0283   1.0000   0.2494   1.0000 114.5791
  -8.000  -0.3496   0.10610   0.09277  -0.0266   1.0000   0.2555   1.0000 114.9366
  -7.750  -0.3310   0.10148   0.08951  -0.0248   1.0000   0.2641   1.0000 115.4462
  -7.500  -0.3549   0.10131   0.08876  -0.0221   1.0000   0.2716   1.0000 115.8859
  -7.250  -0.3797   0.10041   0.08795  -0.0190   1.0000   0.2749   1.0000 116.0753
  -7.000  -0.3632   0.09672   0.08494  -0.0170   1.0000   0.2863   1.0000 116.7459
  -6.750  -0.4105   0.09798   0.08519  -0.0136   1.0000   0.2901   1.0000 116.9706
  -6.500  -0.3852   0.09317   0.08190  -0.0108   1.0000   0.2998   1.0000 117.5388
  -6.250  -0.4288   0.09388   0.08140  -0.0095   1.0000   0.3073   1.0000 117.9784
  -6.000  -0.4078   0.08962   0.07862  -0.0055   1.0000   0.3175   1.0000 118.5834
  -5.750  -0.4283   0.08808   0.07707  -0.0041   1.0000   0.3271   1.0000 119.1495
  -5.250  -0.4420   0.08431   0.07317   0.0002   1.0000   0.3570   1.0000 120.9158
  -5.000  -0.4453   0.08207   0.07114   0.0028   1.0000   0.3738   1.0000 121.9100
  -4.750  -0.4530   0.08004   0.06907   0.0042   1.0000   0.3926   1.0000 123.0296
  -4.500  -0.4504   0.07736   0.06703   0.0079   1.0000   0.4109   1.0000 124.1089
  -4.250  -0.4478   0.07493   0.06497   0.0116   1.0000   0.4304   1.0000 125.2553
  -4.000  -0.4519   0.07317   0.06317   0.0151   1.0000   0.4621   1.0000 127.1120
  -3.750  -0.3305   0.04671   0.03337  -0.0468   1.0000   0.1821   1.0000 110.5442
  -3.500  -0.3034   0.04355   0.02982  -0.0492   1.0000   0.1843   1.0000 110.6796
  -3.250  -0.2741   0.04075   0.02630  -0.0516   1.0000   0.1884   1.0000 110.9250
  -3.000  -0.2525   0.03925   0.02513  -0.0519   1.0000   0.1951   1.0000 111.3341
  -2.750  -0.2265   0.03780   0.02320  -0.0530   1.0000   0.2042   1.0000 111.8869
  -2.500  -0.2048   0.03681   0.02240  -0.0533   1.0000   0.2141   1.0000 112.4791
  -2.250  -0.1805   0.03589   0.02130  -0.0540   1.0000   0.2265   1.0000 113.2178
  -2.000  -0.1457   0.03529   0.02071  -0.0564   0.9959   0.2452   1.5069 114.3323
  -1.750  -0.0935   0.03479   0.02012  -0.0617   0.9856   0.2755   2.5820 116.1124
  -1.500  -0.0462   0.03441   0.01988  -0.0661   0.9748   0.3122   3.4902 118.2716
  -1.250   0.0002   0.03408   0.01966  -0.0700   0.9639   0.3617   4.3154 121.1952
  -0.750   0.0857   0.03292   0.01970  -0.0760   0.9431   0.5593   5.7538 132.7924
  -0.500   0.1104   0.03166   0.01943  -0.0742   0.9304   1.0000   6.5814 160.0000
  -0.250   0.1509   0.03254   0.01976  -0.0776   0.9182   1.0000   7.3652 160.0000
   0.000   0.1943   0.03343   0.02028  -0.0812   0.9070   1.0000   8.0765 160.0000
   0.250   0.2270   0.03421   0.02084  -0.0830   0.8945   1.0000   8.8683 160.0000
   0.500   0.2541   0.03505   0.02147  -0.0839   0.8821   1.0000   9.6437 160.0000
   0.750   0.2856   0.03590   0.02211  -0.0855   0.8706   1.0000  10.3622 160.0000
   1.000   0.3281   0.03667   0.02267  -0.0886   0.8607   1.0000  10.9782 160.0000
   1.250   0.3470   0.03761   0.02346  -0.0882   0.8484   1.0000  11.7467 160.0000
   1.500   0.3721   0.03855   0.02422  -0.0886   0.8373   1.0000  12.4404 160.0000
   1.750   0.4151   0.03926   0.02475  -0.0915   0.8284   1.0000  12.9896 160.0000
   2.000   0.4286   0.04038   0.02574  -0.0904   0.8164   1.0000  13.7399 160.0000
   2.250   0.4511   0.04145   0.02663  -0.0905   0.8060   1.0000  14.3813 160.0000
   2.500   0.4894   0.04217   0.02719  -0.0925   0.7970   1.0000  14.9435 160.0000
   2.750   0.5000   0.04354   0.02840  -0.0912   0.7856   1.0000  15.6499 160.0000
   3.000   0.5265   0.04459   0.02926  -0.0917   0.7761   1.0000  16.2372 160.0000
   3.250   0.5537   0.04557   0.03010  -0.0923   0.7661   1.0000  16.8529 160.0000
   3.500   0.5651   0.04712   0.03144  -0.0912   0.7556   1.0000  17.5028 160.0000
   3.750   0.6066   0.04769   0.03183  -0.0931   0.7471   1.0000  18.0298 160.0000
   4.000   0.6102   0.04955   0.03352  -0.0913   0.7359   1.0000  18.7240 160.0000
   4.250   0.6281   0.05099   0.03475  -0.0909   0.7258   1.0000  19.3471 160.0000
   4.500   0.6619   0.05179   0.03538  -0.0919   0.7166   1.0000  19.9168 160.0000
   4.750   0.6642   0.05391   0.03729  -0.0902   0.7054   1.0000  20.6066 160.0000
   5.000   0.6895   0.05512   0.03826  -0.0904   0.6957   1.0000  21.2047 160.0000
   5.250   0.7103   0.05649   0.03945  -0.0902   0.6853   1.0000  21.8465 160.0000
   5.500   0.7150   0.05869   0.04140  -0.0888   0.6743   1.0000  22.5279 160.0000
   5.750   0.7453   0.05967   0.04214  -0.0892   0.6644   1.0000  23.1403 160.0000
   6.000   0.7592   0.06142   0.04369  -0.0885   0.6531   1.0000  23.8343 160.0000
   6.250   0.7620   0.06388   0.04588  -0.0872   0.6418   1.0000  24.5326 160.0000
   6.500   0.7866   0.06513   0.04686  -0.0870   0.6308   1.0000  25.2131 160.0000
   6.750   0.8137   0.06616   0.04766  -0.0869   0.6194   1.0000  25.9133 160.0000
   7.000   0.8095   0.06914   0.05038  -0.0853   0.6070   1.0000  26.6795 160.0000
   7.250   0.8207   0.07123   0.05217  -0.0845   0.5949   1.0000  27.4247 160.0000
   7.500   0.8466   0.07229   0.05293  -0.0840   0.5825   1.0000  28.1920 160.0000
   7.750   0.8854   0.07224   0.05259  -0.0837   0.5697   1.0000  28.9796 160.0000
   8.000   0.8781   0.07561   0.05572  -0.0822   0.5558   1.0000  29.8370 160.0000
   8.250   0.8816   0.07821   0.05802  -0.0810   0.5417   1.0000  30.7035 160.0000
   8.500   0.8912   0.08034   0.05984  -0.0799   0.5274   1.0000  31.5892 160.0000
   8.750   0.9053   0.08202   0.06120  -0.0788   0.5123   1.0000  32.5207 160.0000
   9.000   0.9207   0.08352   0.06237  -0.0775   0.4968   1.0000  33.4836 160.0000
   9.250   0.9371   0.08476   0.06329  -0.0761   0.4804   1.0000  34.4986 160.0000
   9.500   0.9551   0.08570   0.06389  -0.0744   0.4634   1.0000  35.5529 160.0000
   9.750   0.9807   0.08551   0.06336  -0.0724   0.4454   1.0000  36.6692 160.0000
